   19
Geometry Step: 0
    C     14.39598223      7.70729189      9.00000000
    C     14.19333705      6.30909916      9.00000000
    C     11.45220905     16.14443711      9.00000000
    C     13.77602031      8.88124549      9.00000000
    C     15.00224189     11.88624265      9.00000000
    C     10.31625768     13.94878914      9.00000000
    C     12.71669162     11.27862677      9.00000000
    C     11.77206471     11.78060599      9.00000000
    C      8.59160112      9.78776488      9.00000000
    C      9.92051075     12.71965685      9.00000000
    C      7.46300288      8.99672083      9.00000000
    C     13.61576189     10.03313655      9.00000000
    C      8.62070065     12.16660201      9.00000000
    C      9.13383858     10.83823190      9.00000000
    C     13.86136083     11.14050424      9.00000000
    C     11.32089205     13.12500334      9.00000000
    C     11.12362790     14.70198535      9.00000000
    C     10.10346197     15.56116940      9.00000000
    C     10.42295729     11.40069756      9.00000000
