   13
Geometry Step: 0
    C     13.08901443     12.76073133      9.00000000
    C      8.91277000     10.45888762      9.00000000
    C      5.01008498     10.24807621      9.00000000
    C     16.21000383      7.70562338      9.00000000
    C     11.92529211     13.37338975      9.00000000
    C     10.72278691     13.69497006      9.00000000
    C     13.35674877     11.99188774      9.00000000
    C     15.73354826      8.72047051      9.00000000
    C     12.87337896     12.99734046      9.00000000
    C      9.47579512     13.56567603      9.00000000
    C     10.98646589     13.63013181      9.00000000
    C     12.72616401      9.86798052      9.00000000
    C      8.23827587     14.01045047      9.00000000
