   24
Geometry Step: 0
    C     13.95027431      8.72616101      9.00000000
    C     10.23226682     15.46937930      9.00000000
    C     13.34786099     10.12725619      9.00000000
    C     13.36819246     13.37515223      9.00000000
    C      9.48144692     13.42958346      9.00000000
    C     10.77798938      9.81696858      9.00000000
    C     11.12967515     13.32417665      9.00000000
    C      9.26190652     12.78604405      9.00000000
    C     12.59917107     13.37249981      9.00000000
    C     12.77695172     11.49960181      9.00000000
    C      8.35978221     10.01935523      9.00000000
    C      8.59671538     10.74241904      9.00000000
    C     15.34634392     10.72343344      9.00000000
    C     11.11636687     11.30366990      9.00000000
    C     13.06669552     10.81681656      9.00000000
    C      9.96562275     14.77478921      9.00000000
    C      9.70910997     14.08990619      9.00000000
    C     10.93763659     10.56749299      9.00000000
    C     14.13335382     13.35807172      9.00000000
    C     11.86158268     13.37773101      9.00000000
    C      9.04403074     12.12133970      9.00000000
    C     13.64284183      9.42553674      9.00000000
    C      8.82220919     11.44292565      9.00000000
    C     11.58797004     12.68548760      9.00000000
