   19
Geometry Step: 0
    C     12.88906479     14.26086179      9.00000000
    C     10.77813007      8.25337958      9.00000000
    C     12.03370052     13.21296006      9.00000000
    C     10.55149539     10.73403110      9.00000000
    C     10.79549692     13.86041329      9.00000000
    C      9.40638496     13.65413954      9.00000000
    C     13.76397142      9.26479080      9.00000000
    C      9.17289102     10.99702812      9.00000000
    C     14.58467113     10.36883899      9.00000000
    C     14.07715638     11.72151627      9.00000000
    C      9.01004026      9.52330818      9.00000000
    C     11.57012092     15.09276845      9.00000000
    C     15.85180536     10.91398887      9.00000000
    C      8.75182080     12.37541132      9.00000000
    C     11.34298108     11.99355619      9.00000000
    C     11.15016899      9.49570431      9.00000000
    C     12.40716014      9.62394231      9.00000000
    C     13.60127145     13.02474980      9.00000000
    C      9.43566368      8.20756383      9.00000000
